** sch_path: /home/afgar/opamp/mag/nmos2.sch
.subckt nmos2 D9 D8 GND
*.PININFO GND:B D9:O D8:O
XM7 D9 D8 GND GND sky130_fd_pr__nfet_01v8 L=0.8 W=1 nf=1 m=4
XM8 D8 D8 GND GND sky130_fd_pr__nfet_01v8 L=0.8 W=1 nf=1 m=4
XM1 D9 D9 D9 GND sky130_fd_pr__nfet_01v8 L=0.15 W=1 nf=1 m=2
XM2 D8 D8 D8 GND sky130_fd_pr__nfet_01v8 L=0.15 W=1 nf=1 m=2
.ends
.end
